Version 4.1
SHEET 1 1284 680
WIRE 32 -64 -96 -64
WIRE 64 -64 32 -64
WIRE 240 -64 64 -64
WIRE 272 -64 240 -64
WIRE 624 -64 272 -64
WIRE 656 -64 624 -64
WIRE 784 -64 656 -64
WIRE 624 -32 624 -64
WIRE 32 -16 32 -64
WIRE 64 -16 32 -16
WIRE 272 -16 272 -64
WIRE 272 -16 240 -16
WIRE 144 16 112 16
WIRE 192 16 144 16
WIRE 656 16 656 -64
WIRE 656 16 624 16
WIRE 784 32 784 16
WIRE 240 48 240 32
WIRE 560 48 240 48
WIRE 576 48 560 48
WIRE 64 64 64 32
WIRE 144 64 144 16
WIRE 144 64 64 64
WIRE -96 128 -96 -64
WIRE 560 144 560 48
WIRE 624 144 624 64
WIRE 672 144 624 144
WIRE 736 144 672 144
WIRE 832 144 816 144
WIRE 64 160 64 64
WIRE 240 160 240 48
WIRE -96 176 -96 128
WIRE 144 208 64 208
WIRE 240 208 144 208
WIRE 624 208 624 144
WIRE 624 208 560 208
WIRE 16 240 -176 240
WIRE 288 256 288 240
WIRE 672 256 672 208
WIRE 672 256 624 256
WIRE 688 256 672 256
WIRE 64 288 64 256
WIRE 192 288 64 288
WIRE 240 288 240 256
WIRE 240 288 192 288
WIRE 672 304 672 256
WIRE 672 304 624 304
WIRE 192 368 192 336
WIRE -96 416 -96 208
WIRE -16 416 -96 416
WIRE 192 416 192 384
WIRE -96 464 -144 464
WIRE -16 496 -16 416
WIRE -16 496 -48 496
WIRE 144 496 144 368
WIRE 144 496 -16 496
WIRE 576 496 576 288
WIRE 576 496 144 496
WIRE -144 512 -144 464
WIRE -96 512 -144 512
WIRE -96 544 -96 512
WIRE -176 592 -176 240
WIRE 832 592 832 144
WIRE 832 592 -176 592
FLAG 192 416 0
FLAG 144 208 0
FLAG -96 544 0
FLAG 784 32 0
FLAG 16 400 0
FLAG 288 336 0
FLAG 688 256 0
SYMBOL cmosn 16 160 R0
SYMATTR InstName M1
SYMATTR Value2 l=0.5u w=5.6u
SYMBOL cmosn 288 160 M0
SYMATTR InstName M2
SYMATTR Value2 l=0.5u w=5.6u
SYMBOL cmosn 144 288 R0
SYMATTR InstName M0
SYMATTR Value2 l=0.5u w=11.2u
SYMBOL cmosn 576 208 R0
SYMATTR InstName M6
SYMATTR Value2 l=0.5u w=57.3u
SYMBOL cmosp 112 -64 M0
SYMATTR InstName M3
SYMATTR Value2 l=0.5u w=12.7u
SYMBOL cmosp 192 -64 R0
SYMATTR InstName M4
SYMATTR Value2 l=0.5u w=12.7u
SYMBOL cmosp 576 -32 R0
SYMATTR InstName M5
SYMATTR Value2 l=0.5u w=127.2u
SYMBOL voltage 784 -80 R0
WINDOW 0 24 96 Left 2
WINDOW 3 24 16 Left 2
WINDOW 123 0 0 Left 0
WINDOW 39 0 0 Left 0
SYMATTR InstName V1
SYMATTR Value 1.8
SYMBOL cmosn -48 416 M0
SYMATTR InstName M7
SYMATTR Value2 l=0.5u w=1.1u
SYMBOL current -96 128 R0
WINDOW 123 0 0 Left 0
WINDOW 39 0 0 Left 0
SYMATTR InstName I1
SYMATTR Value 10
SYMBOL voltage 16 304 R0
WINDOW 123 24 124 Left 2
WINDOW 39 0 0 Left 0
SYMATTR InstName V2
SYMATTR Value 0.9
SYMBOL voltage 288 240 R0
WINDOW 123 24 124 Left 2
WINDOW 39 0 0 Left 0
SYMATTR Value2 AC 0
SYMATTR InstName V3
SYMATTR Value PULSE(0.9 1.1 1u 0.1n 0.1n 10u 20u)
SYMBOL cap 544 144 R0
SYMATTR InstName C1
SYMATTR Value 5p
SYMBOL cap 656 144 R0
SYMATTR InstName C2
SYMATTR Value 10p
SYMBOL res 0 224 R0
SYMATTR InstName R1
SYMATTR Value 10k
SYMBOL res 832 128 R90
WINDOW 0 0 56 VBottom 2
WINDOW 3 32 56 VTop 2
SYMATTR InstName R2
SYMATTR Value 10k
TEXT 1024 8 Left 2 !.ac dec 20 1 1G
TEXT 1024 48 Left 2 ;.tran 20u
TEXT 1024 88 Left 2 ;.op
TEXT 1024 120 Left 2 !.INCLUDE tsmc018.lib