Version 4.1
SHEET 1 1012 680
WIRE 48 16 -96 16
WIRE 80 16 48 16
WIRE 256 16 80 16
WIRE 288 16 256 16
WIRE 544 16 288 16
WIRE 576 16 544 16
WIRE 704 16 576 16
WIRE 544 48 544 16
WIRE 48 64 48 16
WIRE 80 64 48 64
WIRE 288 64 288 16
WIRE 288 64 256 64
WIRE 160 96 128 96
WIRE 208 96 160 96
WIRE 576 96 576 16
WIRE 576 96 544 96
WIRE 704 112 704 96
WIRE 256 128 256 112
WIRE 480 128 256 128
WIRE 496 128 480 128
WIRE 80 144 80 112
WIRE 160 144 160 96
WIRE 160 144 80 144
WIRE -96 176 -96 16
WIRE 480 176 480 128
WIRE 80 192 80 144
WIRE 256 192 256 128
WIRE 480 224 480 176
WIRE 544 224 544 144
WIRE 592 224 544 224
WIRE 160 240 80 240
WIRE 256 240 160 240
WIRE 32 288 32 272
WIRE 304 288 304 272
WIRE 480 288 480 240
WIRE 544 288 544 224
WIRE 544 288 480 288
WIRE 80 320 80 288
WIRE 208 320 80 320
WIRE 256 320 256 288
WIRE 256 320 208 320
WIRE 592 336 592 288
WIRE 592 336 544 336
WIRE 608 336 592 336
WIRE 592 384 592 336
WIRE 592 384 544 384
WIRE 208 400 208 368
WIRE -96 416 -96 256
WIRE 0 416 -96 416
WIRE 208 448 208 416
WIRE -96 464 -144 464
WIRE 0 496 0 416
WIRE 0 496 -48 496
WIRE 160 496 160 400
WIRE 160 496 0 496
WIRE 496 496 496 368
WIRE 496 496 160 496
WIRE -144 512 -144 464
WIRE -96 512 -144 512
WIRE -96 544 -96 512
FLAG 208 448 0
FLAG 160 240 0
FLAG -96 544 0
FLAG 704 112 0
FLAG 32 368 0
FLAG 304 368 0
FLAG 608 336 0
SYMBOL cmosn 32 192 R0
SYMATTR InstName M1
SYMATTR Value2 l=0.5u w=5.6u
SYMBOL cmosn 304 192 M0
SYMATTR InstName M2
SYMATTR Value2 l=0.5u w=5.6u
SYMBOL cmosn 160 320 R0
SYMATTR InstName M0
SYMATTR Value2 l=0.5u w=11.2u
SYMBOL cmosn 496 288 R0
SYMATTR InstName M6
SYMATTR Value2 l=0.5u w=57.3u
SYMBOL cmosp 128 16 M0
SYMATTR InstName M3
SYMATTR Value2 l=0.5u w=12.7u
SYMBOL cmosp 208 16 R0
SYMATTR InstName M4
SYMATTR Value2 l=0.5u w=12.7u
SYMBOL cmosp 496 48 R0
SYMATTR InstName M5
SYMATTR Value2 l=0.5u w=127.2u
SYMBOL voltage 704 0 R0
WINDOW 0 24 96 Left 2
WINDOW 3 24 16 Left 2
WINDOW 123 0 0 Left 0
WINDOW 39 0 0 Left 0
SYMATTR InstName V1
SYMATTR Value 1.8
SYMBOL cmosn -48 416 M0
SYMATTR InstName M7
SYMATTR Value2 l=0.5u w=1.1u
SYMBOL current -96 176 R0
WINDOW 123 0 0 Left 0
WINDOW 39 0 0 Left 0
SYMATTR InstName I1
SYMATTR Value 10
SYMBOL voltage 32 272 R0
WINDOW 123 24 124 Left 2
WINDOW 39 0 0 Left 0
SYMATTR InstName V2
SYMATTR Value 0.9
SYMBOL voltage 304 272 R0
WINDOW 123 24 124 Left 2
WINDOW 39 0 0 Left 0
SYMATTR Value2 AC 1
SYMATTR InstName V3
SYMATTR Value 0.9
SYMBOL cap 464 176 R0
SYMATTR InstName C1
SYMATTR Value 5p
SYMBOL cap 576 224 R0
SYMATTR InstName C2
SYMATTR Value 10p
TEXT 752 448 Left 2 ;.op
TEXT 752 176 Left 2 !.ac dec 20 1 1G
TEXT 752 216 Left 2 !.INCLUDE tsmc018.lib
TEXT 752 256 Left 2 !.options logopinfo